validation_cases/use_cases/uc5/synthetic.powermodels.json
{
    "ac": true,
    "baseMVA": 1.0,
    "branch": {
        "1": {
            "angmax": 1.0471975511965976,
            "angmin": -1.0471975511965976,
            "b_fr": 0.0,
            "b_to": 0.0,
            "br_r": 8.264462809917356e-07,
            "br_status": 1,
            "br_x": 6.611570247933885e-06,
            "f_bus": 1,
            "g_fr": 0.0,
            "g_to": 0.0,
            "index": 1,
            "rate_a": 0.0,
            "rate_b": 0.0,
            "rate_c": 0.0,
            "shift": 0.0,
            "t_bus": 2,
            "tap": 1.0,
            "transformer": false
        },
        "2": {
            "angmax": 1.0471975511965976,
            "angmin": -1.0471975511965976,
            "b_fr": 0.0,
            "b_to": 0.0,
            "br_r": 8.264462809917356e-07,
            "br_status": 1,
            "br_x": 4.958677685950413e-06,
            "f_bus": 2,
            "g_fr": 0.0,
            "g_to": 0.0,
            "index": 2,
            "rate_a": 0.0,
            "rate_b": 0.0,
            "rate_c": 0.0,
            "shift": 0.0,
            "t_bus": 3,
            "tap": 1.0,
            "transformer": false
        }
    },
    "bus": {
        "1": {
            "base_kv": 110.0,
            "bus_i": 1,
            "bus_type": 3,
            "index": 1,
            "va": 0.0,
            "vm": 1.0,
            "vmax": 1.00000001,
            "vmin": 0.99999999,
            "zone": 1
        },
        "2": {
            "base_kv": 110.0,
            "bus_i": 2,
            "bus_type": 1,
            "index": 2,
            "va": 0.0,
            "vm": 1.0,
            "vmax": 2.0,
            "vmin": 0.0,
            "zone": 1
        },
        "3": {
            "base_kv": 110.0,
            "bus_i": 3,
            "bus_type": 1,
            "index": 3,
            "va": 0.0,
            "vm": 1.0,
            "vmax": 2.0,
            "vmin": 0.0,
            "zone": 1
        }
    },
    "correct_pm_network_data": true,
    "dcline": {},
    "gen": {
        "1": {
            "cost": [
                0,
                1.0,
                0.0
            ],
            "gen_bus": 1,
            "gen_status": 1,
            "index": 1,
            "model": 2,
            "ncost": 3,
            "pg": 0.0,
            "pmax": 1000000000.0,
            "pmin": -1000000000.0,
            "qg": 0.0,
            "qmax": 1000000000.0,
            "qmin": -1000000000.0,
            "shutdown": 0.0,
            "startup": 0.0,
            "vg": 1.0
        }
    },
    "load": {
        "1": {
            "index": 1,
            "load_bus": 2,
            "pd": 35.0,
            "qd": 8.0,
            "status": 1
        },
        "2": {
            "index": 2,
            "load_bus": 3,
            "pd": 20.0,
            "qd": 5.0,
            "status": 1
        }
    },
    "name": "",
    "ne_branch": {},
    "per_unit": true,
    "pm_log_level": 0,
    "pm_mip_solver": "cbc",
    "pm_mip_time_limit": Infinity,
    "pm_model": "ACPPowerModel",
    "pm_nl_solver": "ipopt",
    "pm_nl_time_limit": Infinity,
    "pm_solver": "ipopt",
    "pm_time_limit": Infinity,
    "pm_tol": 1e-08,
    "shunt": {},
    "silence": true,
    "source_version": "2.0.0",
    "sourcetype": "matpower",
    "storage": {},
    "switch": {},
    "user_defined_params": {}
}